Circuit: * C:\Documents and Settings\9012\Desktop\PCC FAULT LED.asc

WARNING: Less than two connections to node N003.  This node is used by V3.
WARNING: Less than two connections to node N007.  This node is used by V4.
WARNING: Less than two connections to node N011.  This node is used by V5.
Direct Newton iteration for .op point succeeded.

Date: Tue Sep 18 16:00:25 2012
Total elapsed time: 0.234 seconds.

tnom = 27
temp = 27
method = modified trap
totiter = 9078
traniter = 9050
tranpoints = 2789
accept = 2281
rejected = 508
matrix size = 45
fillins = 8
solver = Normal
Matrix Compiler1: 2.53 KB object code size  2.0/2.0/[0.9]
Matrix Compiler2: 3.44 KB object code size  1.2/1.4/[1.0]


